<<<<<<< HEAD
# File generated by Flopy version 3.3.2 on 01/31/2021 at 18:06:23.
=======
# File generated by Flopy version 3.3.2 on 01/31/2021 at 17:35:28.
>>>>>>> experiment1
BEGIN options
  COMPLEXITY  simple
END options

