# File generated by Flopy version 3.3.2 on 01/22/2021 at 15:54:18.
BEGIN options
  COMPLEXITY  simple
END options

