# File generated by Flopy version 3.3.2 on 02/04/2021 at 20:50:53.
BEGIN options
END options

BEGIN packages
  DIS6  'ejercicio .dis'  dis
  IC6  'ejercicio .ic'  ic
  NPF6  'ejercicio .npf'  npf
  CHD6  'ejercicio .chd'  chd_0
  RCH6  'ejercicio .rcha'  rcha
  OC6  'ejercicio .oc'  oc
END packages

