# File generated by Flopy version 3.3.2 on 02/04/2021 at 20:50:59.
BEGIN options
  BUDGET  FILEOUT  'ejercicio .bud'
  HEAD  FILEOUT  'ejercicio .hds'
END options

BEGIN period  1
  SAVE  HEAD  ALL
  SAVE  BUDGET  ALL
  PRINT  HEAD  LAST
END period  1

