# File generated by Flopy version 3.3.2 on 01/31/2021 at 18:06:25.
BEGIN options
  BUDGET  FILEOUT  'ejercicio .cbb'
  HEAD  FILEOUT  'ejercicio .hds'
END options

BEGIN period  1
  SAVE  HEAD  ALL
  SAVE  BUDGET  ALL
  PRINT  HEAD  LAST
END period  1

