# File generated by Flopy version 3.3.2 on 02/04/2021 at 20:50:53.
BEGIN options
END options

BEGIN timing
  TDIS6  'ejercicio .tdis'
END timing

BEGIN models
  gwf6  'ejercicio .nam'  ejercicio 
END models

BEGIN exchanges
END exchanges

BEGIN solutiongroup  1
  ims6  'ejercicio .ims'  ejercicio 
END solutiongroup  1

